#======================================================================

# CRYSTAL DATA

#----------------------------------------------------------------------

data_VESTA_phase_1


_chemical_name_common                  'title                                 '
_cell_length_a                         12.75625
_cell_length_b                         12.75625
_cell_length_c                         47.03626
_cell_angle_alpha                      90
_cell_angle_beta                       90
_cell_angle_gamma                      120.00001
_space_group_name_H-M_alt              'P 1'
_space_group_IT_number                 1

loop_
_space_group_symop_operation_xyz
   'x, y, z'

loop_
   _atom_site_label
   _atom_site_occupancy
   _atom_site_fract_x
   _atom_site_fract_y
   _atom_site_fract_z
   _atom_site_adp_type
   _atom_site_B_iso_or_equiv
   _atom_site_type_symbol
   Mo1        1.0     0.166455      0.083544      0.566138     Biso  1.000000 Mo
   Mo2        1.0     0.167631      0.583391      0.565814     Biso  1.000000 Mo
   Mo3        1.0     0.666609      0.082369      0.565814     Biso  1.000000 Mo
   Mo4        1.0     0.664509      0.585490      0.567364     Biso  1.000000 Mo
   Mo5        1.0     0.167631      0.334240      0.565814     Biso  1.000000 Mo
   Mo6        1.0     0.166455      0.832911      0.566138     Biso  1.000000 Mo
   Mo7        1.0     0.666609      0.334240      0.565814     Biso  1.000000 Mo
   Mo8        1.0     0.664509      0.829019      0.567364     Biso  1.000000 Mo
   Mo9        1.0     0.417089      0.083544      0.566138     Biso  1.000000 Mo
   Mo10       1.0     0.420982      0.585490      0.567364     Biso  1.000000 Mo
   Mo11       1.0     0.915761      0.082369      0.565814     Biso  1.000000 Mo
   Mo12       1.0     0.915761      0.583391      0.565814     Biso  1.000000 Mo
   Mo13       1.0     0.418027      0.336055      0.566649     Biso  1.000000 Mo
   Mo14       1.0     0.418027      0.831973      0.566649     Biso  1.000000 Mo
   Mo15       1.0     0.916667      0.333333      0.565542     Biso  1.000000 Mo
   Mo16       1.0     0.913945      0.831973      0.566649     Biso  1.000000 Mo
   Mo17       1.0     0.083344      0.166655      0.433786     Biso  1.000000 Mo
   Mo18       1.0     0.083344      0.666689      0.433786     Biso  1.000000 Mo
   Mo19       1.0     0.583311      0.166655      0.433786     Biso  1.000000 Mo
   Mo20       1.0     0.583333      0.666667      0.433547     Biso  1.000000 Mo
   Mo21       1.0     0.083364      0.416682      0.433778     Biso  1.000000 Mo
   Mo22       1.0     0.083309      0.916655      0.433771     Biso  1.000000 Mo
   Mo23       1.0     0.583327      0.416720      0.433702     Biso  1.000000 Mo
   Mo24       1.0     0.583327      0.916606      0.433702     Biso  1.000000 Mo
   Mo25       1.0     0.333345      0.166690      0.433771     Biso  1.000000 Mo
   Mo26       1.0     0.333394      0.666673      0.433702     Biso  1.000000 Mo
   Mo27       1.0     0.833318      0.166635      0.433778     Biso  1.000000 Mo
   Mo28       1.0     0.833279      0.666673      0.433702     Biso  1.000000 Mo
   Mo29       1.0     0.333394      0.416720      0.433702     Biso  1.000000 Mo
   Mo30       1.0     0.333345      0.916655      0.433771     Biso  1.000000 Mo
   Mo31       1.0     0.833318      0.416682      0.433778     Biso  1.000000 Mo
   Mo32       1.0     0.833279      0.916606      0.433702     Biso  1.000000 Mo
   S1         1.0     0.082756      0.167243      0.598972     Biso  1.000000 S
   S2         1.0     0.082756      0.665513      0.598972     Biso  1.000000 S
   S3         1.0     0.584486      0.167243      0.598972     Biso  1.000000 S
   S4         1.0     0.583333      0.666667      0.600543     Biso  1.000000 S
   S5         1.0     0.083059      0.416530      0.598739     Biso  1.000000 S
   S6         1.0     0.083118      0.916559      0.599313     Biso  1.000000 S
   S7         1.0     0.585469      0.418130      0.599763     Biso  1.000000 S
   S8         1.0     0.585469      0.917338      0.599763     Biso  1.000000 S
   S9         1.0     0.333441      0.166882      0.599313     Biso  1.000000 S
   S10        1.0     0.332662      0.664531      0.599763     Biso  1.000000 S
   S11        1.0     0.833470      0.166940      0.598739     Biso  1.000000 S
   S12        1.0     0.831870      0.664531      0.599763     Biso  1.000000 S
   S13        1.0     0.332662      0.418130      0.599763     Biso  1.000000 S
   S14        1.0     0.333441      0.916559      0.599313     Biso  1.000000 S
   S15        1.0     0.833470      0.416530      0.598739     Biso  1.000000 S
   S16        1.0     0.831870      0.917338      0.599763     Biso  1.000000 S
   S17        1.0     0.166688      0.083311      0.466897     Biso  1.000000 S
   S18        1.0     0.166909      0.583449      0.466878     Biso  1.000000 S
   S19        1.0     0.666551      0.083091      0.466878     Biso  1.000000 S
   S20        1.0     0.666461      0.583538      0.466770     Biso  1.000000 S
   S21        1.0     0.166909      0.333460      0.466878     Biso  1.000000 S
   S22        1.0     0.166688      0.833377      0.466897     Biso  1.000000 S
   S23        1.0     0.666551      0.333460      0.466878     Biso  1.000000 S
   S24        1.0     0.666461      0.832923      0.466770     Biso  1.000000 S
   S25        1.0     0.416624      0.083311      0.466897     Biso  1.000000 S
   S26        1.0     0.417077      0.583538      0.466770     Biso  1.000000 S
   S27        1.0     0.916540      0.083091      0.466878     Biso  1.000000 S
   S28        1.0     0.916540      0.583449      0.466878     Biso  1.000000 S
   S29        1.0     0.416770      0.333540      0.466855     Biso  1.000000 S
   S30        1.0     0.416770      0.833230      0.466855     Biso  1.000000 S
   S31        1.0     0.916667      0.333333      0.466881     Biso  1.000000 S
   S32        1.0     0.916460      0.833230      0.466855     Biso  1.000000 S
   S33        1.0     0.083620      0.166380      0.532799     Biso  1.000000 S
   S34        1.0     0.083620      0.667240      0.532799     Biso  1.000000 S
   S35        1.0     0.582759      0.166380      0.532799     Biso  1.000000 S
   S36        1.0     0.084342      0.417171      0.532561     Biso  1.000000 S
   S37        1.0     0.081371      0.915685      0.533350     Biso  1.000000 S
   S39        1.0     0.582882      0.909750      0.533466     Biso  1.000000 S
   S40        1.0     0.334315      0.168629      0.533350     Biso  1.000000 S
   S41        1.0     0.340250      0.667118      0.533466     Biso  1.000000 S
   S42        1.0     0.832829      0.165658      0.532561     Biso  1.000000 S
   S43        1.0     0.826868      0.667118      0.533466     Biso  1.000000 S
   S44        1.0     0.340250      0.423132      0.533466     Biso  1.000000 S
   S45        1.0     0.334315      0.915685      0.533350     Biso  1.000000 S
   S46        1.0     0.832829      0.417171      0.532561     Biso  1.000000 S
   S47        1.0     0.826868      0.909750      0.533466     Biso  1.000000 S
   S48        1.0     0.166661      0.083338      0.400632     Biso  1.000000 S
   S49        1.0     0.166534      0.583287      0.400613     Biso  1.000000 S
   S50        1.0     0.666713      0.083465      0.400613     Biso  1.000000 S
   S51        1.0     0.666781      0.583218      0.400490     Biso  1.000000 S
   S52        1.0     0.166534      0.333247      0.400613     Biso  1.000000 S
   S53        1.0     0.166661      0.833323      0.400632     Biso  1.000000 S
   S54        1.0     0.666713      0.333247      0.400613     Biso  1.000000 S
   S55        1.0     0.666781      0.833563      0.400490     Biso  1.000000 S
   S56        1.0     0.416678      0.083338      0.400632     Biso  1.000000 S
   S57        1.0     0.416437      0.583218      0.400490     Biso  1.000000 S
   S58        1.0     0.916753      0.083465      0.400613     Biso  1.000000 S
   S59        1.0     0.916753      0.583287      0.400613     Biso  1.000000 S
   S60        1.0     0.416593      0.333186      0.400578     Biso  1.000000 S
   S61        1.0     0.416593      0.833407      0.400578     Biso  1.000000 S
   S62        1.0     0.916667      0.333333      0.400636     Biso  1.000000 S
   S63        1.0     0.916814      0.833407      0.400578     Biso  1.000000 S
